/cluster/home/robinson/nemo/trunk/NEMO/OPA_SRC/DOM/domzgr_substitute.h90