/cluster/home/robinson/nemo/trunk/NEMO/OPA_SRC/OBS/greg2jul.h90