/cluster/home/robinson/nemo/trunk/NEMO/OPA_SRC/OBS/jul2greg.h90