/cluster/home/robinson/nemo/trunk/NEMO/OPA_SRC/LDF/ldfdyn_c3d.h90