/cluster/home/robinson/nemo/trunk/NEMO/OPA_SRC/LDF/ldfdyn_c1d.h90