/cluster/home/robinson/nemo/trunk/NEMO/OPA_SRC/LDF/ldfdyn_c2d.h90