/cluster/home/robinson/nemo/trunk/NEMO/OPA_SRC/LDF/ldfeiv_substitute.h90