/cluster/home/robinson/nemo/trunk/NEMO/OPA_SRC/LDF/ldftra_c1d.h90