/cluster/home/robinson/nemo/trunk/NEMO/OPA_SRC/OBS/maxdist.h90