/cluster/home/robinson/nemo/trunk/NEMO/OPA_SRC/OBS/obsinter_h2d.h90