/cluster/home/robinson/nemo/trunk/NEMO/OPA_SRC/OBS/obsprof_io.h90