/cluster/home/robinson/nemo/trunk/NEMO/OPA_SRC/OBS/obssla_types.h90