/cluster/home/robinson/nemo/trunk/NEMO/OPA_SRC/OBS/obsseaice_io.h90