/cluster/home/robinson/nemo/trunk/NEMO/OPA_SRC/OBS/obsvel_io.h90