/cluster/home/robinson/nemo/trunk/NEMO/OPA_SRC/OBS/str_c_to_for.h90