/cluster/home/robinson/nemo/trunk/NEMO/OPA_SRC/SBC/tide.h90