/cluster/home/robinson/nemo/trunk/NEMO/TOP_SRC/top_substitute.h90