/cluster/home/robinson/nemo/trunk/NEMO/OPA_SRC/vectopt_loop_substitute.h90