/cluster/home/robinson/nemo/trunk/NEMO/OPA_SRC/ZDF/zdfddm_substitute.h90